#======================================================================

# CRYSTAL DATA

#----------------------------------------------------------------------

data_VESTA_phase_1


_chemical_name_common                  'unknown system                        '
_cell_length_a                         76.97172
_cell_length_b                         19.24293
_cell_length_c                         12.69540
_cell_angle_alpha                      90
_cell_angle_beta                       90
_cell_angle_gamma                      90
_space_group_name_H-M_alt              'P 1'
_space_group_IT_number                 1

loop_
_space_group_symop_operation_xyz
   'x, y, z'

loop_
   _atom_site_label
   _atom_site_occupancy
   _atom_site_fract_x
   _atom_site_fract_y
   _atom_site_fract_z
   _atom_site_adp_type
   _atom_site_B_iso_or_equiv
   _atom_site_type_symbol
   Cs1        1.0     0.895046      0.839009      0.249100     Biso  1.000000 Cs
   Cs2        1.0     0.949440      0.341919      0.742831     Biso  1.000000 Cs
   Cs3        1.0     0.926123      0.051749      0.741972     Biso  1.000000 Cs
   Cs4        1.0     0.910498      0.108041      0.252490     Biso  1.000000 Cs
   Cs5        1.0     0.843999      0.206876      0.251960     Biso  1.000000 Cs
   Cs6        1.0     0.950917      0.423559      0.252015     Biso  1.000000 Cs
   Cs7        1.0     0.799042      0.631278      0.249872     Biso  1.000000 Cs
   Cs8        1.0     0.896517      0.750003      0.749404     Biso  1.000000 Cs
   Cs9        1.0     0.852530      0.190342      0.752047     Biso  1.000000 Cs
   Cs10       1.0     0.881438      0.465188      0.747785     Biso  1.000000 Cs
   Cs11       1.0     0.867695      0.512591      0.250633     Biso  1.000000 Cs
   Cs12       1.0     0.749272      0.047523      0.249978     Biso  1.000000 Cs
   Cs13       1.0     0.001401      0.954355      0.325009     Biso  1.000000 Cs
   Cs14       1.0     0.696431      0.425582      0.248448     Biso  1.000000 Cs
   Cs15       1.0     0.802655      0.559877      0.749825     Biso  1.000000 Cs
   Cs16       1.0     0.830951      0.870851      0.750059     Biso  1.000000 Cs
   Cs17       1.0     0.776966      0.280104      0.749260     Biso  1.000000 Cs
   Cs18       1.0     0.967805      0.666873      0.749485     Biso  1.000000 Cs
   Cs19       1.0     0.815369      0.922876      0.249968     Biso  1.000000 Cs
   Cs20       1.0     0.770732      0.327205      0.249823     Biso  1.000000 Cs
   Cs21       1.0     0.957594      0.703210      0.249079     Biso  1.000000 Cs
   Cs22       1.0     0.648471      0.824421      0.250739     Biso  1.000000 Cs
   Cs23       1.0     0.604025      0.246892      0.251592     Biso  1.000000 Cs
   Cs24       1.0     0.750066      0.956456      0.748932     Biso  1.000000 Cs
   Cs25       1.0     0.702015      0.372099      0.749760     Biso  1.000000 Cs
   Cs26       1.0     0.730190      0.667457      0.750157     Biso  1.000000 Cs
   Cs27       1.0     0.684635      0.077997      0.749757     Biso  1.000000 Cs
   Cs28       1.0     0.721698      0.718720      0.250682     Biso  1.000000 Cs
   Cs29       1.0     0.667918      0.131323      0.252109     Biso  1.000000 Cs
   Cs30       1.0     0.544629      0.564624      0.253763     Biso  1.000000 Cs
   Cs31       1.0     0.655044      0.788015      0.749705     Biso  1.000000 Cs
   Cs32       1.0     0.604068      0.161719      0.749251     Biso  1.000000 Cs
   Cs33       1.0     0.629316      0.500593      0.750128     Biso  1.000000 Cs
   Cs34       1.0     0.617799      0.539957      0.252628     Biso  1.000000 Cs
   Cs35       1.0     0.553374      0.614784      0.752009     Biso  1.000000 Cs
   Cs36       1.0     0.592403      0.891671      0.751383     Biso  1.000000 Cs
   Cs37       1.0     0.539973      0.298086      0.748751     Biso  1.000000 Cs
   Cs38       1.0     0.575184      0.939755      0.249657     Biso  1.000000 Cs
   Cs39       1.0     0.534239      0.308987      0.249038     Biso  1.000000 Cs
   Cs40       1.0     0.501354      0.050638      0.836704     Biso  1.000000 Cs
   Cs41       1.0     0.103943      0.837544      0.249402     Biso  1.000000 Cs
   Cs42       1.0     0.044541      0.434890      0.754362     Biso  1.000000 Cs
   Cs43       1.0     0.075129      0.060061      0.749973     Biso  1.000000 Cs
   Cs44       1.0     0.092246      0.107914      0.250269     Biso  1.000000 Cs
   Cs45       1.0     0.155052      0.209898      0.247642     Biso  1.000000 Cs
   Cs46       1.0     0.053065      0.384700      0.250455     Biso  1.000000 Cs
   Cs47       1.0     0.201309      0.629588      0.249589     Biso  1.000000 Cs
   Cs48       1.0     0.103639      0.753152      0.750342     Biso  1.000000 Cs
   Cs49       1.0     0.148094      0.178636      0.750059     Biso  1.000000 Cs
   Cs50       1.0     0.117684      0.460396      0.752535     Biso  1.000000 Cs
   Cs51       1.0     0.129421      0.499345      0.249766     Biso  1.000000 Cs
   Cs52       1.0     0.250314      0.045037      0.249217     Biso  1.000000 Cs
   Cs53       1.0     0.303351      0.434442      0.249515     Biso  1.000000 Cs
   Cs54       1.0     0.196398      0.574276      0.748444     Biso  1.000000 Cs
   Cs55       1.0     0.167913      0.869280      0.750442     Biso  1.000000 Cs
   Cs56       1.0     0.221783      0.281773      0.750225     Biso  1.000000 Cs
   Cs57       1.0     0.034172      0.691177      0.745804     Biso  1.000000 Cs
   Cs58       1.0     0.184766      0.922652      0.249633     Biso  1.000000 Cs
   Cs59       1.0     0.229180      0.330313      0.249419     Biso  1.000000 Cs
   Cs60       1.0     0.039760      0.701754      0.247949     Biso  1.000000 Cs
   Cs61       1.0     0.352591      0.810403      0.248174     Biso  1.000000 Cs
   Cs62       1.0     0.396496      0.250261      0.249773     Biso  1.000000 Cs
   Cs63       1.0     0.249310      0.952560      0.749826     Biso  1.000000 Cs
   Cs64       1.0     0.298012      0.370948      0.749372     Biso  1.000000 Cs
   Cs65       1.0     0.269584      0.672152      0.749399     Biso  1.000000 Cs
   Cs66       1.0     0.315361      0.077252      0.749599     Biso  1.000000 Cs
   Cs67       1.0     0.277533      0.719747      0.249123     Biso  1.000000 Cs
   Cs68       1.0     0.331934      0.128485      0.249932     Biso  1.000000 Cs
   Cs69       1.0     0.449712      0.658944      0.243390     Biso  1.000000 Cs
   Cs70       1.0     0.343883      0.795012      0.749364     Biso  1.000000 Cs
   Cs71       1.0     0.395848      0.159298      0.749009     Biso  1.000000 Cs
   Cs72       1.0     0.368233      0.488741      0.750127     Biso  1.000000 Cs
   Cs73       1.0     0.381269      0.534699      0.247921     Biso  1.000000 Cs
   Cs74       1.0     0.451031      0.576607      0.751693     Biso  1.000000 Cs
   Cs75       1.0     0.410469      0.890195      0.751475     Biso  1.000000 Cs
   Cs76       1.0     0.458077      0.296737      0.747396     Biso  1.000000 Cs
   Cs77       1.0     0.426370      0.948105      0.241486     Biso  1.000000 Cs
   Cs78       1.0     0.467612      0.330992      0.247375     Biso  1.000000 Cs
   Cs79       1.0     0.000341      0.917561      0.752835     Biso  1.000000 Cs
   Cs80       1.0     0.500861      0.081953      0.259108     Biso  1.000000 Cs
   I1         1.0     0.971141      0.018271      0.543776     Biso  1.000000 I
   I2         1.0     0.875452      0.159393      0.472132     Biso  1.000000 I
   I3         1.0     0.911052      0.977782      0.469316     Biso  1.000000 I
   I4         1.0     0.933839      0.192654      0.530810     Biso  1.000000 I
   I5         1.0     0.875853      0.160363      0.029522     Biso  1.000000 I
   I6         1.0     0.969322      0.017313      0.936267     Biso  1.000000 I
   I7         1.0     0.935948      0.195709      0.938845     Biso  1.000000 I
   I8         1.0     0.911481      0.982160      0.026883     Biso  1.000000 I
   I9         1.0     0.959230      0.137844      0.230457     Biso  1.000000 I
   I10        1.0     0.876383      0.015456      0.749414     Biso  1.000000 I
   I11        1.0     0.939165      0.860741      0.748715     Biso  1.000000 I
   I12        1.0     0.951314      0.899827      0.249774     Biso  1.000000 I
   I13        1.0     0.921661      0.425944      0.528644     Biso  1.000000 I
   I14        1.0     0.827474      0.555230      0.467639     Biso  1.000000 I
   I15        1.0     0.974369      0.338140      0.485274     Biso  1.000000 I
   I16        1.0     0.964657      0.565490      0.472166     Biso  1.000000 I
   I17        1.0     0.815829      0.782532      0.462715     Biso  1.000000 I
   I18        1.0     0.882941      0.598076      0.524682     Biso  1.000000 I
   I19        1.0     0.830202      0.005602      0.527362     Biso  1.000000 I
   I20        1.0     0.827655      0.555801      0.032471     Biso  1.000000 I
   I21        1.0     0.972657      0.342445      0.012550     Biso  1.000000 I
   I22        1.0     0.921797      0.426632      0.963488     Biso  1.000000 I
   I23        1.0     0.882617      0.596785      0.973059     Biso  1.000000 I
   I24        1.0     0.830354      0.005414      0.972944     Biso  1.000000 I
   I25        1.0     0.964320      0.565983      0.027694     Biso  1.000000 I
   I26        1.0     0.815838      0.782550      0.036872     Biso  1.000000 I
   I27        1.0     0.917721      0.571100      0.249477     Biso  1.000000 I
   I28        1.0     0.832499      0.399465      0.750796     Biso  1.000000 I
   I29        1.0     0.994478      0.190554      0.774648     Biso  1.000000 I
   I30        1.0     0.002871      0.481987      0.249693     Biso  1.000000 I
   I31        1.0     0.843951      0.678697      0.749926     Biso  1.000000 I
   I32        1.0     0.856555      0.706973      0.249986     Biso  1.000000 I
   I33        1.0     0.869222      0.833934      0.534985     Biso  1.000000 I
   I34        1.0     0.819926      0.231975      0.539484     Biso  1.000000 I
   I35        1.0     0.775477      0.959532      0.467995     Biso  1.000000 I
   I36        1.0     0.727825      0.365036      0.460260     Biso  1.000000 I
   I37        1.0     0.921228      0.752628      0.467253     Biso  1.000000 I
   I38        1.0     0.866030      0.375760      0.472277     Biso  1.000000 I
   I39        1.0     0.715771      0.588301      0.475831     Biso  1.000000 I
   I40        1.0     0.784748      0.411387      0.527892     Biso  1.000000 I
   I41        1.0     0.975373      0.781347      0.511249     Biso  1.000000 I
   I42        1.0     0.775504      0.959538      0.032034     Biso  1.000000 I
   I43        1.0     0.727693      0.364616      0.032254     Biso  1.000000 I
   I44        1.0     0.921019      0.752300      0.030038     Biso  1.000000 I
   I45        1.0     0.869659      0.835037      0.965085     Biso  1.000000 I
   I46        1.0     0.820765      0.231406      0.972940     Biso  1.000000 I
   I47        1.0     0.785156      0.411025      0.971255     Biso  1.000000 I
   I48        1.0     0.975060      0.780469      0.985956     Biso  1.000000 I
   I49        1.0     0.866964      0.377441      0.025088     Biso  1.000000 I
   I50        1.0     0.715752      0.586884      0.026886     Biso  1.000000 I
   I51        1.0     0.864398      0.995664      0.249859     Biso  1.000000 I
   I52        1.0     0.820099      0.380829      0.250233     Biso  1.000000 I
   I53        1.0     0.783133      0.810971      0.749537     Biso  1.000000 I
   I54        1.0     0.730067      0.209267      0.749648     Biso  1.000000 I
   I55        1.0     0.924515      0.588843      0.749152     Biso  1.000000 I
   I56        1.0     0.897276      0.277182      0.748400     Biso  1.000000 I
   I57        1.0     0.745498      0.477567      0.749948     Biso  1.000000 I
   I58        1.0     0.909138      0.304346      0.246773     Biso  1.000000 I
   I59        1.0     0.756835      0.518511      0.249776     Biso  1.000000 I
   I60        1.0     0.772363      0.635380      0.541290     Biso  1.000000 I
   I61        1.0     0.723763      0.041185      0.529449     Biso  1.000000 I
   I62        1.0     0.680038      0.767469      0.459857     Biso  1.000000 I
   I63        1.0     0.629849      0.167764      0.475988     Biso  1.000000 I
   I64        1.0     0.763984      0.194712      0.468276     Biso  1.000000 I
   I65        1.0     0.669742      0.994693      0.470535     Biso  1.000000 I
   I66        1.0     0.616108      0.405231      0.479460     Biso  1.000000 I
   I67        1.0     0.735167      0.804096      0.536910     Biso  1.000000 I
   I68        1.0     0.683222      0.220455      0.541245     Biso  1.000000 I
   I69        1.0     0.680020      0.767715      0.040087     Biso  1.000000 I
   I70        1.0     0.629544      0.168784      0.026334     Biso  1.000000 I
   I71        1.0     0.772336      0.635297      0.958603     Biso  1.000000 I
   I72        1.0     0.724287      0.040089      0.969593     Biso  1.000000 I
   I73        1.0     0.735076      0.802277      0.965946     Biso  1.000000 I
   I74        1.0     0.683224      0.220906      0.958159     Biso  1.000000 I
   I75        1.0     0.764050      0.194571      0.030849     Biso  1.000000 I
   I76        1.0     0.670241      0.997143      0.031963     Biso  1.000000 I
   I77        1.0     0.616415      0.407926      0.023243     Biso  1.000000 I
   I78        1.0     0.769353      0.787149      0.249852     Biso  1.000000 I
   I79        1.0     0.715683      0.194293      0.249713     Biso  1.000000 I
   I80        1.0     0.679923      0.618881      0.750250     Biso  1.000000 I
   I81        1.0     0.635991      0.006455      0.750424     Biso  1.000000 I
   I82        1.0     0.788686      0.088158      0.750483     Biso  1.000000 I
   I83        1.0     0.698034      0.889048      0.750090     Biso  1.000000 I
   I84        1.0     0.640813      0.304071      0.750173     Biso  1.000000 I
   I85        1.0     0.800572      0.112341      0.250372     Biso  1.000000 I
   I86        1.0     0.712162      0.911375      0.250057     Biso  1.000000 I
   I87        1.0     0.653298      0.320065      0.250141     Biso  1.000000 I
   I88        1.0     0.672860      0.444134      0.532083     Biso  1.000000 I
   I89        1.0     0.578946      0.574242      0.470890     Biso  1.000000 I
   I90        1.0     0.564101      0.798715      0.559968     Biso  1.000000 I
   I91        1.0     0.522747      0.201630      0.486574     Biso  1.000000 I
   I92        1.0     0.634179      0.626766      0.513563     Biso  1.000000 I
   I93        1.0     0.589138      0.017536      0.528101     Biso  1.000000 I
   I94        1.0     0.578874      0.576323      0.032973     Biso  1.000000 I
   I95        1.0     0.672640      0.444447      0.967209     Biso  1.000000 I
   I96        1.0     0.633943      0.625710      0.989824     Biso  1.000000 I
   I97        1.0     0.589586      0.017747      0.972532     Biso  1.000000 I
   I98        1.0     0.563794      0.803944      0.956851     Biso  1.000000 I
   I99        1.0     0.522751      0.198648      0.011478     Biso  1.000000 I
   I100       1.0     0.668699      0.589727      0.250037     Biso  1.000000 I
   I101       1.0     0.578692      0.439002      0.750185     Biso  1.000000 I
   I102       1.0     0.600303      0.689376      0.751644     Biso  1.000000 I
   I103       1.0     0.549310      0.099034      0.751619     Biso  1.000000 I
   I104       1.0     0.603022      0.738103      0.250650     Biso  1.000000 I
   I105       1.0     0.562075      0.137076      0.250909     Biso  1.000000 I
   I106       1.0     0.625025      0.841297      0.526193     Biso  1.000000 I
   I107       1.0     0.576687      0.248028      0.533807     Biso  1.000000 I
   I108       1.0     0.532773      0.972878      0.426044     Biso  1.000000 I
   I109       1.0     0.533769      0.428028      0.496816     Biso  1.000000 I
   I110       1.0     0.532088      0.978315      0.071720     Biso  1.000000 I
   I111       1.0     0.625416      0.842449      0.976278     Biso  1.000000 I
   I112       1.0     0.577148      0.250390      0.965176     Biso  1.000000 I
   I113       1.0     0.534212      0.428704      0.001116     Biso  1.000000 I
   I114       1.0     0.623652      0.997579      0.250458     Biso  1.000000 I
   I115       1.0     0.575805      0.406699      0.250374     Biso  1.000000 I
   I116       1.0     0.509071      0.845138      0.835888     Biso  1.000000 I
   I117       1.0     0.497395      0.498279      0.248687     Biso  1.000000 I
   I118       1.0     0.527324      0.648811      0.503474     Biso  1.000000 I
   I119       1.0     0.527940      0.649957      0.005589     Biso  1.000000 I
   I120       1.0     0.549844      0.768964      0.255484     Biso  1.000000 I
   I121       1.0     0.031397      0.021813      0.566005     Biso  1.000000 I
   I122       1.0     0.125371      0.158072      0.474624     Biso  1.000000 I
   I123       1.0     0.089343      0.982629      0.472397     Biso  1.000000 I
   I124       1.0     0.063434      0.196794      0.453036     Biso  1.000000 I
   I125       1.0     0.124780      0.157542      0.023903     Biso  1.000000 I
   I126       1.0     0.032328      0.025687      0.924018     Biso  1.000000 I
   I127       1.0     0.064220      0.197829      0.052195     Biso  1.000000 I
   I128       1.0     0.089055      0.981914      0.027823     Biso  1.000000 I
   I129       1.0     0.009319      0.159391      0.332331     Biso  1.000000 I
   I130       1.0     0.123782      0.004240      0.749283     Biso  1.000000 I
   I131       1.0     0.061672      0.863282      0.749093     Biso  1.000000 I
   I132       1.0     0.049234      0.901090      0.249048     Biso  1.000000 I
   I133       1.0     0.078811      0.423435      0.532723     Biso  1.000000 I
   I134       1.0     0.172449      0.555508      0.467537     Biso  1.000000 I
   I135       1.0     0.027897      0.350966      0.505412     Biso  1.000000 I
   I136       1.0     0.034003      0.571263      0.499754     Biso  1.000000 I
   I137       1.0     0.183177      0.779092      0.458107     Biso  1.000000 I
   I138       1.0     0.116284      0.592694      0.522792     Biso  1.000000 I
   I139       1.0     0.170134      0.004116      0.529967     Biso  1.000000 I
   I140       1.0     0.172590      0.555585      0.031839     Biso  1.000000 I
   I141       1.0     0.026609      0.349559      0.002166     Biso  1.000000 I
   I142       1.0     0.078726      0.424971      0.970857     Biso  1.000000 I
   I143       1.0     0.116042      0.594680      0.979249     Biso  1.000000 I
   I144       1.0     0.169781      0.005102      0.970827     Biso  1.000000 I
   I145       1.0     0.033727      0.571365      0.996079     Biso  1.000000 I
   I146       1.0     0.183175      0.779585      0.041000     Biso  1.000000 I
   I147       1.0     0.078609      0.559524      0.249919     Biso  1.000000 I
   I148       1.0     0.168672      0.410305      0.749966     Biso  1.000000 I
   I149       1.0     0.049614      0.230636      0.753335     Biso  1.000000 I
   I150       1.0     0.997650      0.502524      0.749046     Biso  1.000000 I
   I151       1.0     0.153281      0.679976      0.750013     Biso  1.000000 I
   I152       1.0     0.140839      0.695912      0.250162     Biso  1.000000 I
   I153       1.0     0.129484      0.831618      0.526990     Biso  1.000000 I
   I154       1.0     0.180023      0.232252      0.540053     Biso  1.000000 I
   I155       1.0     0.224327      0.959633      0.468242     Biso  1.000000 I
   I156       1.0     0.272340      0.364713      0.458686     Biso  1.000000 I
   I157       1.0     0.076607      0.749519      0.465410     Biso  1.000000 I
   I158       1.0     0.133716      0.374562      0.490439     Biso  1.000000 I
   I159       1.0     0.284749      0.588206      0.471961     Biso  1.000000 I
   I160       1.0     0.215583      0.411413      0.523856     Biso  1.000000 I
   I161       1.0     0.022260      0.802121      0.506135     Biso  1.000000 I
   I162       1.0     0.224132      0.959454      0.030006     Biso  1.000000 I
   I163       1.0     0.272302      0.364694      0.041102     Biso  1.000000 I
   I164       1.0     0.076513      0.751164      0.032481     Biso  1.000000 I
   I165       1.0     0.129541      0.831627      0.972851     Biso  1.000000 I
   I166       1.0     0.180049      0.232304      0.959914     Biso  1.000000 I
   I167       1.0     0.215543      0.411334      0.975992     Biso  1.000000 I
   I168       1.0     0.022512      0.798260      0.984368     Biso  1.000000 I
   I169       1.0     0.133925      0.373023      0.013258     Biso  1.000000 I
   I170       1.0     0.284359      0.588592      0.024057     Biso  1.000000 I
   I171       1.0     0.135912      0.993018      0.249633     Biso  1.000000 I
   I172       1.0     0.178952      0.381762      0.250192     Biso  1.000000 I
   I173       1.0     0.215762      0.805904      0.748826     Biso  1.000000 I
   I174       1.0     0.269339      0.212708      0.749944     Biso  1.000000 I
   I175       1.0     0.075671      0.592522      0.750005     Biso  1.000000 I
   I176       1.0     0.102850      0.262162      0.749825     Biso  1.000000 I
   I177       1.0     0.255381      0.480731      0.748891     Biso  1.000000 I
   I178       1.0     0.100030      0.309316      0.250407     Biso  1.000000 I
   I179       1.0     0.244760      0.520850      0.248830     Biso  1.000000 I
   I180       1.0     0.227573      0.635285      0.532015     Biso  1.000000 I
   I181       1.0     0.275556      0.040623      0.531839     Biso  1.000000 I
   I182       1.0     0.319955      0.767937      0.460218     Biso  1.000000 I
   I183       1.0     0.369907      0.165466      0.467737     Biso  1.000000 I
   I184       1.0     0.235596      0.194471      0.463599     Biso  1.000000 I
   I185       1.0     0.330362      0.994675      0.473045     Biso  1.000000 I
   I186       1.0     0.383034      0.404909      0.475272     Biso  1.000000 I
   I187       1.0     0.264017      0.805512      0.530550     Biso  1.000000 I
   I188       1.0     0.316160      0.220619      0.541358     Biso  1.000000 I
   I189       1.0     0.320139      0.768251      0.031647     Biso  1.000000 I
   I190       1.0     0.370015      0.165937      0.032194     Biso  1.000000 I
   I191       1.0     0.227749      0.635467      0.959235     Biso  1.000000 I
   I192       1.0     0.275514      0.040681      0.967860     Biso  1.000000 I
   I193       1.0     0.264012      0.805821      0.967592     Biso  1.000000 I
   I194       1.0     0.316345      0.220104      0.958590     Biso  1.000000 I
   I195       1.0     0.235640      0.193927      0.035750     Biso  1.000000 I
   I196       1.0     0.330296      0.994727      0.026963     Biso  1.000000 I
   I197       1.0     0.383299      0.404610      0.022475     Biso  1.000000 I
   I198       1.0     0.230245      0.789739      0.248590     Biso  1.000000 I
   I199       1.0     0.284171      0.189818      0.249905     Biso  1.000000 I
   I200       1.0     0.319563      0.623484      0.748053     Biso  1.000000 I
   I201       1.0     0.364403      0.004196      0.749474     Biso  1.000000 I
   I202       1.0     0.212167      0.088639      0.749792     Biso  1.000000 I
   I203       1.0     0.300550      0.887970      0.749210     Biso  1.000000 I
   I204       1.0     0.358489      0.293907      0.749774     Biso  1.000000 I
   I205       1.0     0.198361      0.112222      0.249781     Biso  1.000000 I
   I206       1.0     0.288660      0.912004      0.249263     Biso  1.000000 I
   I207       1.0     0.345266      0.321310      0.249705     Biso  1.000000 I
   I208       1.0     0.328576      0.445895      0.541005     Biso  1.000000 I
   I209       1.0     0.422175      0.574001      0.464158     Biso  1.000000 I
   I210       1.0     0.435837      0.804146      0.439094     Biso  1.000000 I
   I211       1.0     0.475581      0.216830      0.482371     Biso  1.000000 I
   I212       1.0     0.366747      0.622756      0.523218     Biso  1.000000 I
   I213       1.0     0.411529      0.017549      0.526921     Biso  1.000000 I
   I214       1.0     0.421843      0.574882      0.029718     Biso  1.000000 I
   I215       1.0     0.328084      0.444722      0.959578     Biso  1.000000 I
   I216       1.0     0.365656      0.624204      0.972537     Biso  1.000000 I
   I217       1.0     0.411184      0.019872      0.968999     Biso  1.000000 I
   I218       1.0     0.433493      0.807089      0.029229     Biso  1.000000 I
   I219       1.0     0.475749      0.215696      0.006997     Biso  1.000000 I
   I220       1.0     0.331939      0.597187      0.248935     Biso  1.000000 I
   I221       1.0     0.417934      0.428853      0.749324     Biso  1.000000 I
   I222       1.0     0.408875      0.694329      0.747736     Biso  1.000000 I
   I223       1.0     0.451452      0.100482      0.749497     Biso  1.000000 I
   I224       1.0     0.397248      0.722836      0.248781     Biso  1.000000 I
   I225       1.0     0.439057      0.140871      0.248445     Biso  1.000000 I
   I226       1.0     0.375837      0.839552      0.528719     Biso  1.000000 I
   I227       1.0     0.421193      0.248020      0.529815     Biso  1.000000 I
   I228       1.0     0.468688      0.982006      0.430876     Biso  1.000000 I
   I229       1.0     0.464769      0.433608      0.527354     Biso  1.000000 I
   I230       1.0     0.470291      0.981368      0.047411     Biso  1.000000 I
   I231       1.0     0.375101      0.840219      0.971224     Biso  1.000000 I
   I232       1.0     0.421567      0.248702      0.966838     Biso  1.000000 I
   I233       1.0     0.465139      0.434066      0.972122     Biso  1.000000 I
   I234       1.0     0.376399      0.986280      0.249461     Biso  1.000000 I
   I235       1.0     0.424544      0.411172      0.249137     Biso  1.000000 I
   I236       1.0     0.459255      0.861894      0.729744     Biso  1.000000 I
   I237       1.0     0.503085      0.518353      0.749791     Biso  1.000000 I
   I238       1.0     0.473118      0.658302      0.513782     Biso  1.000000 I
   I239       1.0     0.474353      0.662425      0.984694     Biso  1.000000 I
   I240       1.0     0.494795      0.807514      0.275411     Biso  1.000000 I
   Pb1        1.0     0.972898      0.171319      0.447212     Biso  1.000000 Pb
   Pb2        1.0     0.945859      0.882615      0.499571     Biso  1.000000 Pb
   Pb3        1.0     0.973280      0.174340      0.996513     Biso  1.000000 Pb
   Pb4        1.0     0.945957      0.882845      0.997862     Biso  1.000000 Pb
   Pb5        1.0     0.923802      0.588401      0.496555     Biso  1.000000 Pb
   Pb6        1.0     0.871111      0.997204      0.501563     Biso  1.000000 Pb
   Pb7        1.0     0.999550      0.465592      0.495848     Biso  1.000000 Pb
   Pb8        1.0     0.849441      0.692416      0.498353     Biso  1.000000 Pb
   Pb9        1.0     0.923431      0.588713      0.002973     Biso  1.000000 Pb
   Pb10       1.0     0.871513      0.998264      0.997873     Biso  1.000000 Pb
   Pb11       1.0     0.849640      0.693415      0.002038     Biso  1.000000 Pb
   Pb12       1.0     0.825345      0.392163      0.500438     Biso  1.000000 Pb
   Pb13       1.0     0.900791      0.288711      0.495065     Biso  1.000000 Pb
   Pb14       1.0     0.750195      0.500290      0.499270     Biso  1.000000 Pb
   Pb15       1.0     0.825402      0.392520      0.000007     Biso  1.000000 Pb
   Pb16       1.0     0.750267      0.500118      0.000803     Biso  1.000000 Pb
   Pb17       1.0     0.775443      0.796785      0.501553     Biso  1.000000 Pb
   Pb18       1.0     0.723496      0.203911      0.498628     Biso  1.000000 Pb
   Pb19       1.0     0.796821      0.097024      0.504466     Biso  1.000000 Pb
   Pb20       1.0     0.702896      0.902267      0.495433     Biso  1.000000 Pb
   Pb21       1.0     0.649473      0.311137      0.505143     Biso  1.000000 Pb
   Pb22       1.0     0.775454      0.796781      0.998225     Biso  1.000000 Pb
   Pb23       1.0     0.723481      0.203112      0.000460     Biso  1.000000 Pb
   Pb24       1.0     0.703045      0.902234      0.004345     Biso  1.000000 Pb
   Pb25       1.0     0.649361      0.311273      0.995048     Biso  1.000000 Pb
   Pb26       1.0     0.674837      0.606659      0.498112     Biso  1.000000 Pb
   Pb27       1.0     0.629015      0.004162      0.499618     Biso  1.000000 Pb
   Pb28       1.0     0.598610      0.714681      0.501889     Biso  1.000000 Pb
   Pb29       1.0     0.553897      0.109698      0.498239     Biso  1.000000 Pb
   Pb30       1.0     0.674976      0.606871      0.002245     Biso  1.000000 Pb
   Pb31       1.0     0.629568      0.005491      0.001524     Biso  1.000000 Pb
   Pb32       1.0     0.599394      0.714783      0.001957     Biso  1.000000 Pb
   Pb33       1.0     0.555178      0.112059      0.003702     Biso  1.000000 Pb
   Pb34       1.0     0.575247      0.411346      0.504436     Biso  1.000000 Pb
   Pb35       1.0     0.575605      0.413888      0.995738     Biso  1.000000 Pb
   Pb36       1.0     0.499629      0.534961      0.995933     Biso  1.000000 Pb
   Pb37       1.0     0.528053      0.808039      0.438084     Biso  1.000000 Pb
   Pb38       1.0     0.527253      0.812845      0.053418     Biso  1.000000 Pb
   Pb39       1.0     0.027107      0.187807      0.551220     Biso  1.000000 Pb
   Pb40       1.0     0.054692      0.888848      0.501269     Biso  1.000000 Pb
   Pb41       1.0     0.027808      0.190117      0.935636     Biso  1.000000 Pb
   Pb42       1.0     0.053810      0.889556      0.996059     Biso  1.000000 Pb
   Pb43       1.0     0.075491      0.585870      0.495225     Biso  1.000000 Pb
   Pb44       1.0     0.129379      0.994901      0.500410     Biso  1.000000 Pb
   Pb45       1.0     0.149313      0.689003      0.495289     Biso  1.000000 Pb
   Pb46       1.0     0.075124      0.587750      0.004044     Biso  1.000000 Pb
   Pb47       1.0     0.128961      0.995016      0.998223     Biso  1.000000 Pb
   Pb48       1.0     0.149359      0.689063      0.004555     Biso  1.000000 Pb
   Pb49       1.0     0.174765      0.392895      0.502212     Biso  1.000000 Pb
   Pb50       1.0     0.099245      0.285227      0.500623     Biso  1.000000 Pb
   Pb51       1.0     0.249972      0.499430      0.499345     Biso  1.000000 Pb
   Pb52       1.0     0.174644      0.393198      0.997782     Biso  1.000000 Pb
   Pb53       1.0     0.249932      0.499755      0.999786     Biso  1.000000 Pb
   Pb54       1.0     0.223481      0.796873      0.499853     Biso  1.000000 Pb
   Pb55       1.0     0.275942      0.203370      0.498165     Biso  1.000000 Pb
   Pb56       1.0     0.203127      0.097680      0.504413     Biso  1.000000 Pb
   Pb57       1.0     0.296913      0.903422      0.495042     Biso  1.000000 Pb
   Pb58       1.0     0.350225      0.307730      0.503839     Biso  1.000000 Pb
   Pb59       1.0     0.223505      0.796480      0.998836     Biso  1.000000 Pb
   Pb60       1.0     0.276012      0.203553      0.001646     Biso  1.000000 Pb
   Pb61       1.0     0.296850      0.903293      0.003832     Biso  1.000000 Pb
   Pb62       1.0     0.350229      0.308010      0.995874     Biso  1.000000 Pb
   Pb63       1.0     0.324978      0.607861      0.498848     Biso  1.000000 Pb
   Pb64       1.0     0.371570      0.001809      0.497986     Biso  1.000000 Pb
   Pb65       1.0     0.400573      0.707762      0.502864     Biso  1.000000 Pb
   Pb66       1.0     0.445883      0.117137      0.496872     Biso  1.000000 Pb
   Pb67       1.0     0.324998      0.607202      0.997883     Biso  1.000000 Pb
   Pb68       1.0     0.371200      0.002491      0.000592     Biso  1.000000 Pb
   Pb69       1.0     0.400525      0.710800      0.995132     Biso  1.000000 Pb
   Pb70       1.0     0.445666      0.117331      0.999105     Biso  1.000000 Pb
   Pb71       1.0     0.423810      0.411790      0.502806     Biso  1.000000 Pb
   Pb72       1.0     0.424115      0.412662      0.996215     Biso  1.000000 Pb
   Pb73       1.0     0.473156      0.826090      0.495829     Biso  1.000000 Pb
   Pb74       1.0     0.472653      0.829383      0.947434     Biso  1.000000 Pb
   Pb75       1.0     0.998778      0.466446      0.003215     Biso  1.000000 Pb
   Pb76       1.0     0.499061      0.533626      0.503058     Biso  1.000000 Pb
   Pb77       1.0     0.900702      0.291794      0.003058     Biso  1.000000 Pb
   Pb78       1.0     0.796936      0.096676      0.995838     Biso  1.000000 Pb
   Pb79       1.0     0.203001      0.097588      0.995060     Biso  1.000000 Pb
   Pb80       1.0     0.098516      0.284587      0.000754     Biso  1.000000 Pb
